DATABASE external/phreeqc-3.8.6-17100/database/phreeqc.dat

SOLUTION 1 Ocean
    temp        30.0        # Temperature in degrees Celsius
    pressure    1.0         # Pressure in atmospheres
    units       mol/kgw     # Units for concentration


SELECTED_OUTPUT
    -file output.txt
    -saturation_indices CO2(g)
    -saturation_indices H2O(g)

END