DATABASE external/phreeqc-3.8.6-17100/database/phreeqc.dat

SOLUTION 1 Ocean
    temp        30.0        # Temperature in degrees Celsius
    pressure    1.0         # Pressure in atmospheres
    pH          7.0         # Initial pH
    units       mol/kgw     # Units for concentration
    C           0.0         # Total dissolved carbon
    Ca          0.0         # Calcium concentration
    Na          0.0         # Sodium concentration
    Cl          0.0         # Chloride concentration

SELECTED_OUTPUT
    -file output.txt
    -saturation_indices CO2(g)
    -saturation_indices H2O(g)

END